iidm/iidm-xml-converter/src/test/resources/tieLineRef.xml
<?xml version="1.0" encoding="UTF-8"?>
<iidm:network xmlns:iidm="http://www.itesla_project.eu/schema/iidm/1_1" xmlns:tl="http://www.itesla_project.eu/schema/iidm/ext/tieLine/1_0" id="test" caseDate="2016-10-18T10:06:00.000+02:00" forecastDistance="0" sourceFormat="test">
    <iidm:substation id="sub" country="FR" tso="RTE">
        <iidm:voltageLevel id="vl1" nominalV="440.0" lowVoltageLimit="200.0" highVoltageLimit="400.0" topologyKind="BUS_BREAKER">
            <iidm:busBreakerTopology>
                <iidm:bus id="busA"/>
            </iidm:busBreakerTopology>
        </iidm:voltageLevel>
        <iidm:voltageLevel id="vl2" nominalV="200.0" lowVoltageLimit="200.0" highVoltageLimit="400.0" topologyKind="BUS_BREAKER">
            <iidm:busBreakerTopology>
                <iidm:bus id="busB"/>
            </iidm:busBreakerTopology>
        </iidm:voltageLevel>
    </iidm:substation>
    <iidm:line id="tieline" r="11.0" x="22.0" g1="160.0" b1="180.0" g2="170.0" b2="190.0" bus1="busA" connect1="false" voltageLevelId1="vl1" bus2="busB" connect2="false" voltageLevelId2="vl2"/>
    <iidm:extension id="tieline">
        <tl:tieLine id_1="hl1" name_1="hl1" r_1="10.0" x_1="20.0" g1_1="30.0" b1_1="40.0" g2_1="35.0" b2_1="45.0" xnodeP_1="50.0" xnodeQ_1="60.0" id_2="hl2" name_2="hl2" r_2="1.0" x_2="2.0" g1_2="130.0" b1_2="140.0" g2_2="135.0" b2_2="145.0" xnodeP_2="50.0" xnodeQ_2="60.0"/>
    </iidm:extension>
</iidm:network>